#======================================================================

# CRYSTAL DATA

#----------------------------------------------------------------------

data_VESTA_phase_1


_pd_phase_name                         'MOF-650                               '
_cell_length_a                         30.72769
_cell_length_b                         30.72769
_cell_length_c                         30.72769
_cell_angle_alpha                      89.99991
_cell_angle_beta                       90
_cell_angle_gamma                      89.99991
_symmetry_space_group_name_H-M         'P 1'
_symmetry_Int_Tables_number            1

loop_
_symmetry_equiv_pos_as_xyz
   'x, y, z'

loop_
   _atom_site_label
   _atom_site_occupancy
   _atom_site_fract_x
   _atom_site_fract_y
   _atom_site_fract_z
   _atom_site_adp_type
   _atom_site_B_iso_or_equiv
   _atom_site_type_symbol
   C1         1.0     0.749177      0.134361      0.749177     Biso  1.000000 C
   C2         1.0     0.249146      0.867757      0.249146     Biso  1.000000 C
   C3         1.0     0.249244      0.867796      0.749244     Biso  1.000000 C
   C4         1.0     0.749214      0.134405      0.249214     Biso  1.000000 C
   C5         1.0     0.249177      0.134361      0.249177     Biso  1.000000 C
   C6         1.0     0.749146      0.867757      0.749146     Biso  1.000000 C
   C7         1.0     0.749244      0.867796      0.249244     Biso  1.000000 C
   C8         1.0     0.249214      0.134405      0.749214     Biso  1.000000 C
   C9         1.0     0.749244      0.750756      0.132204     Biso  1.000000 C
   C10        1.0     0.249214      0.250786      0.865595     Biso  1.000000 C
   C11        1.0     0.749177      0.250823      0.865639     Biso  1.000000 C
   C12        1.0     0.249146      0.750854      0.132243     Biso  1.000000 C
   C13        1.0     0.249244      0.250756      0.132204     Biso  1.000000 C
   C14        1.0     0.749214      0.750786      0.865595     Biso  1.000000 C
   C15        1.0     0.249177      0.750823      0.865639     Biso  1.000000 C
   C16        1.0     0.749146      0.250854      0.132243     Biso  1.000000 C
   C17        1.0     0.132204      0.750756      0.749244     Biso  1.000000 C
   C18        1.0     0.865595      0.250786      0.249214     Biso  1.000000 C
   C19        1.0     0.865639      0.750823      0.249177     Biso  1.000000 C
   C20        1.0     0.132243      0.250854      0.749146     Biso  1.000000 C
   C21        1.0     0.132204      0.250756      0.249244     Biso  1.000000 C
   C22        1.0     0.865595      0.750786      0.749214     Biso  1.000000 C
   C23        1.0     0.865639      0.250823      0.749177     Biso  1.000000 C
   C24        1.0     0.132243      0.750854      0.249146     Biso  1.000000 C
   C25        1.0     0.749177      0.634361      0.249177     Biso  1.000000 C
   C26        1.0     0.249146      0.367757      0.749146     Biso  1.000000 C
   C27        1.0     0.249244      0.367796      0.249244     Biso  1.000000 C
   C28        1.0     0.749214      0.634405      0.749214     Biso  1.000000 C
   C29        1.0     0.249177      0.634361      0.749177     Biso  1.000000 C
   C30        1.0     0.749146      0.367757      0.249146     Biso  1.000000 C
   C31        1.0     0.749244      0.367796      0.749244     Biso  1.000000 C
   C32        1.0     0.249214      0.634405      0.249214     Biso  1.000000 C
   C33        1.0     0.749244      0.250756      0.632204     Biso  1.000000 C
   C34        1.0     0.249214      0.750786      0.365595     Biso  1.000000 C
   C35        1.0     0.749177      0.750823      0.365639     Biso  1.000000 C
   C36        1.0     0.249146      0.250854      0.632243     Biso  1.000000 C
   C37        1.0     0.249244      0.750756      0.632204     Biso  1.000000 C
   C38        1.0     0.749214      0.250786      0.365595     Biso  1.000000 C
   C39        1.0     0.249177      0.250823      0.365639     Biso  1.000000 C
   C40        1.0     0.749146      0.750854      0.632243     Biso  1.000000 C
   C41        1.0     0.632204      0.750756      0.249244     Biso  1.000000 C
   C42        1.0     0.365595      0.250786      0.749214     Biso  1.000000 C
   C43        1.0     0.365639      0.750823      0.749177     Biso  1.000000 C
   C44        1.0     0.632243      0.250854      0.249146     Biso  1.000000 C
   C45        1.0     0.632204      0.250756      0.749244     Biso  1.000000 C
   C46        1.0     0.365595      0.750786      0.249214     Biso  1.000000 C
   C47        1.0     0.365639      0.250823      0.249177     Biso  1.000000 C
   C48        1.0     0.632243      0.750854      0.749146     Biso  1.000000 C
   C49        1.0     0.749362      0.086447      0.749362     Biso  1.000000 C
   C50        1.0     0.249275      0.916911      0.249275     Biso  1.000000 C
   C51        1.0     0.249726      0.916963      0.749726     Biso  1.000000 C
   C52        1.0     0.749721      0.086505      0.249721     Biso  1.000000 C
   C53        1.0     0.249362      0.086447      0.249362     Biso  1.000000 C
   C54        1.0     0.749275      0.916911      0.749275     Biso  1.000000 C
   C55        1.0     0.749726      0.916963      0.249726     Biso  1.000000 C
   C56        1.0     0.249721      0.086505      0.749721     Biso  1.000000 C
   C57        1.0     0.749726      0.750274      0.083037     Biso  1.000000 C
   C58        1.0     0.249721      0.250279      0.913495     Biso  1.000000 C
   C59        1.0     0.749362      0.250638      0.913553     Biso  1.000000 C
   C60        1.0     0.249275      0.750725      0.083089     Biso  1.000000 C
   C61        1.0     0.249726      0.250274      0.083037     Biso  1.000000 C
   C62        1.0     0.749721      0.750279      0.913495     Biso  1.000000 C
   C63        1.0     0.249362      0.750638      0.913553     Biso  1.000000 C
   C64        1.0     0.749275      0.250725      0.083089     Biso  1.000000 C
   C65        1.0     0.083037      0.750274      0.749726     Biso  1.000000 C
   C66        1.0     0.913495      0.250279      0.249721     Biso  1.000000 C
   C67        1.0     0.913553      0.750638      0.249362     Biso  1.000000 C
   C68        1.0     0.083089      0.250725      0.749275     Biso  1.000000 C
   C69        1.0     0.083037      0.250274      0.249726     Biso  1.000000 C
   C70        1.0     0.913495      0.750279      0.749721     Biso  1.000000 C
   C71        1.0     0.913553      0.250638      0.749362     Biso  1.000000 C
   C72        1.0     0.083089      0.750725      0.249275     Biso  1.000000 C
   C73        1.0     0.749362      0.586447      0.249362     Biso  1.000000 C
   C74        1.0     0.249275      0.416911      0.749275     Biso  1.000000 C
   C75        1.0     0.249726      0.416963      0.249726     Biso  1.000000 C
   C76        1.0     0.749721      0.586505      0.749721     Biso  1.000000 C
   C77        1.0     0.249362      0.586447      0.749362     Biso  1.000000 C
   C78        1.0     0.749275      0.416911      0.249275     Biso  1.000000 C
   C79        1.0     0.749726      0.416963      0.749726     Biso  1.000000 C
   C80        1.0     0.249721      0.586505      0.249721     Biso  1.000000 C
   C81        1.0     0.749726      0.250274      0.583037     Biso  1.000000 C
   C82        1.0     0.249721      0.750279      0.413495     Biso  1.000000 C
   C83        1.0     0.749362      0.750638      0.413553     Biso  1.000000 C
   C84        1.0     0.249275      0.250725      0.583089     Biso  1.000000 C
   C85        1.0     0.249726      0.750274      0.583037     Biso  1.000000 C
   C86        1.0     0.749721      0.250279      0.413495     Biso  1.000000 C
   C87        1.0     0.249362      0.250638      0.413553     Biso  1.000000 C
   C88        1.0     0.749275      0.750725      0.583089     Biso  1.000000 C
   C89        1.0     0.583037      0.750274      0.249726     Biso  1.000000 C
   C90        1.0     0.413495      0.250279      0.749721     Biso  1.000000 C
   C91        1.0     0.413553      0.750638      0.749362     Biso  1.000000 C
   C92        1.0     0.583089      0.250725      0.249275     Biso  1.000000 C
   C93        1.0     0.583037      0.250274      0.749726     Biso  1.000000 C
   C94        1.0     0.413495      0.750279      0.249721     Biso  1.000000 C
   C95        1.0     0.413553      0.250638      0.249362     Biso  1.000000 C
   C96        1.0     0.583089      0.750725      0.749275     Biso  1.000000 C
   C97        1.0     0.722830      0.060156      0.722830     Biso  1.000000 C
   C98        1.0     0.278411      0.936539      0.278411     Biso  1.000000 C
   C99        1.0     0.279017      0.936643      0.720811     Biso  1.000000 C
   C100       1.0     0.723334      0.060264      0.276513     Biso  1.000000 C
   C101       1.0     0.276010      0.060270      0.276010     Biso  1.000000 C
   C102       1.0     0.720204      0.936655      0.720204     Biso  1.000000 C
   C103       1.0     0.720811      0.936643      0.279017     Biso  1.000000 C
   C104       1.0     0.276513      0.060264      0.723334     Biso  1.000000 C
   C105       1.0     0.720811      0.720983      0.063357     Biso  1.000000 C
   C106       1.0     0.276513      0.276666      0.939736     Biso  1.000000 C
   C107       1.0     0.722830      0.277170      0.939844     Biso  1.000000 C
   C108       1.0     0.278411      0.721589      0.063461     Biso  1.000000 C
   C109       1.0     0.279017      0.279189      0.063357     Biso  1.000000 C
   C110       1.0     0.723334      0.723487      0.939736     Biso  1.000000 C
   C111       1.0     0.276010      0.723990      0.939730     Biso  1.000000 C
   C112       1.0     0.720204      0.279796      0.063345     Biso  1.000000 C
   C113       1.0     0.063357      0.720983      0.720811     Biso  1.000000 C
   C114       1.0     0.939736      0.276666      0.276513     Biso  1.000000 C
   C115       1.0     0.939730      0.723990      0.276010     Biso  1.000000 C
   C116       1.0     0.063345      0.279796      0.720204     Biso  1.000000 C
   C117       1.0     0.063357      0.279189      0.279017     Biso  1.000000 C
   C118       1.0     0.939736      0.723487      0.723334     Biso  1.000000 C
   C119       1.0     0.939844      0.277170      0.722830     Biso  1.000000 C
   C120       1.0     0.063461      0.721589      0.278411     Biso  1.000000 C
   C121       1.0     0.722830      0.560156      0.222830     Biso  1.000000 C
   C122       1.0     0.278411      0.436539      0.778411     Biso  1.000000 C
   C123       1.0     0.279017      0.436643      0.220812     Biso  1.000000 C
   C124       1.0     0.723334      0.560264      0.776513     Biso  1.000000 C
   C125       1.0     0.276010      0.560270      0.776010     Biso  1.000000 C
   C126       1.0     0.720204      0.436655      0.220204     Biso  1.000000 C
   C127       1.0     0.720811      0.436643      0.779017     Biso  1.000000 C
   C128       1.0     0.276513      0.560264      0.223334     Biso  1.000000 C
   C129       1.0     0.720811      0.220983      0.563357     Biso  1.000000 C
   C130       1.0     0.276513      0.776666      0.439736     Biso  1.000000 C
   C131       1.0     0.722830      0.777170      0.439844     Biso  1.000000 C
   C132       1.0     0.278411      0.221589      0.563461     Biso  1.000000 C
   C133       1.0     0.279017      0.779189      0.563357     Biso  1.000000 C
   C134       1.0     0.723334      0.223487      0.439736     Biso  1.000000 C
   C135       1.0     0.276010      0.223990      0.439730     Biso  1.000000 C
   C136       1.0     0.720204      0.779796      0.563345     Biso  1.000000 C
   C137       1.0     0.063357      0.220983      0.220812     Biso  1.000000 C
   C138       1.0     0.939736      0.776666      0.776513     Biso  1.000000 C
   C139       1.0     0.939730      0.223990      0.776010     Biso  1.000000 C
   C140       1.0     0.063345      0.779796      0.220204     Biso  1.000000 C
   C141       1.0     0.063357      0.779189      0.779017     Biso  1.000000 C
   C142       1.0     0.939736      0.223487      0.223334     Biso  1.000000 C
   C143       1.0     0.939844      0.777170      0.222830     Biso  1.000000 C
   C144       1.0     0.063461      0.221589      0.778411     Biso  1.000000 C
   C145       1.0     0.222830      0.060156      0.222830     Biso  1.000000 C
   C146       1.0     0.778411      0.936539      0.778411     Biso  1.000000 C
   C147       1.0     0.779017      0.936643      0.220812     Biso  1.000000 C
   C148       1.0     0.223334      0.060264      0.776513     Biso  1.000000 C
   C149       1.0     0.776010      0.060270      0.776010     Biso  1.000000 C
   C150       1.0     0.220204      0.936655      0.220204     Biso  1.000000 C
   C151       1.0     0.220812      0.936643      0.779017     Biso  1.000000 C
   C152       1.0     0.776513      0.060264      0.223334     Biso  1.000000 C
   C153       1.0     0.220812      0.720983      0.563357     Biso  1.000000 C
   C154       1.0     0.776513      0.276666      0.439736     Biso  1.000000 C
   C155       1.0     0.222830      0.277170      0.439844     Biso  1.000000 C
   C156       1.0     0.778411      0.721589      0.563461     Biso  1.000000 C
   C157       1.0     0.779017      0.279189      0.563357     Biso  1.000000 C
   C158       1.0     0.223334      0.723487      0.439736     Biso  1.000000 C
   C159       1.0     0.776010      0.723990      0.439730     Biso  1.000000 C
   C160       1.0     0.220204      0.279796      0.563345     Biso  1.000000 C
   C161       1.0     0.563357      0.720983      0.220812     Biso  1.000000 C
   C162       1.0     0.439736      0.276666      0.776513     Biso  1.000000 C
   C163       1.0     0.439730      0.723990      0.776010     Biso  1.000000 C
   C164       1.0     0.563345      0.279796      0.220204     Biso  1.000000 C
   C165       1.0     0.563357      0.279189      0.779017     Biso  1.000000 C
   C166       1.0     0.439736      0.723487      0.223334     Biso  1.000000 C
   C167       1.0     0.439844      0.277170      0.222830     Biso  1.000000 C
   C168       1.0     0.563461      0.721589      0.778411     Biso  1.000000 C
   C169       1.0     0.222830      0.560156      0.722830     Biso  1.000000 C
   C170       1.0     0.778411      0.436539      0.278411     Biso  1.000000 C
   C171       1.0     0.779017      0.436643      0.720811     Biso  1.000000 C
   C172       1.0     0.223334      0.560264      0.276513     Biso  1.000000 C
   C173       1.0     0.776010      0.560270      0.276010     Biso  1.000000 C
   C174       1.0     0.220204      0.436655      0.720204     Biso  1.000000 C
   C175       1.0     0.220812      0.436643      0.279017     Biso  1.000000 C
   C176       1.0     0.776513      0.560264      0.723334     Biso  1.000000 C
   C177       1.0     0.220812      0.220983      0.063357     Biso  1.000000 C
   C178       1.0     0.776513      0.776666      0.939736     Biso  1.000000 C
   C179       1.0     0.222830      0.777170      0.939844     Biso  1.000000 C
   C180       1.0     0.778411      0.221589      0.063461     Biso  1.000000 C
   C181       1.0     0.779017      0.779189      0.063357     Biso  1.000000 C
   C182       1.0     0.223334      0.223487      0.939736     Biso  1.000000 C
   C183       1.0     0.776010      0.223990      0.939730     Biso  1.000000 C
   C184       1.0     0.220204      0.779796      0.063345     Biso  1.000000 C
   C185       1.0     0.563357      0.220983      0.720811     Biso  1.000000 C
   C186       1.0     0.439736      0.776666      0.276513     Biso  1.000000 C
   C187       1.0     0.439730      0.223990      0.276010     Biso  1.000000 C
   C188       1.0     0.563345      0.779796      0.720204     Biso  1.000000 C
   C189       1.0     0.563357      0.779189      0.279017     Biso  1.000000 C
   C190       1.0     0.439736      0.223487      0.723334     Biso  1.000000 C
   C191       1.0     0.439844      0.777170      0.722830     Biso  1.000000 C
   C192       1.0     0.563461      0.221589      0.278411     Biso  1.000000 C
   C193       1.0     0.732258      0.016634      0.732258     Biso  1.000000 C
   C194       1.0     0.732884      0.016706      0.267296     Biso  1.000000 C
   C195       1.0     0.266677      0.016674      0.266677     Biso  1.000000 C
   C196       1.0     0.267296      0.016706      0.732884     Biso  1.000000 C
   C197       1.0     0.267296      0.267116      0.983294     Biso  1.000000 C
   C198       1.0     0.732258      0.267742      0.983366     Biso  1.000000 C
   C199       1.0     0.732884      0.732704      0.983294     Biso  1.000000 C
   C200       1.0     0.266677      0.733323      0.983326     Biso  1.000000 C
   C201       1.0     0.983294      0.267116      0.267296     Biso  1.000000 C
   C202       1.0     0.983326      0.733323      0.266677     Biso  1.000000 C
   C203       1.0     0.983294      0.732704      0.732884     Biso  1.000000 C
   C204       1.0     0.983366      0.267742      0.732258     Biso  1.000000 C
   C205       1.0     0.732258      0.516634      0.232258     Biso  1.000000 C
   C206       1.0     0.732884      0.516706      0.767296     Biso  1.000000 C
   C207       1.0     0.266677      0.516674      0.766677     Biso  1.000000 C
   C208       1.0     0.267296      0.516706      0.232884     Biso  1.000000 C
   C209       1.0     0.267296      0.767116      0.483294     Biso  1.000000 C
   C210       1.0     0.732258      0.767742      0.483366     Biso  1.000000 C
   C211       1.0     0.732884      0.232704      0.483294     Biso  1.000000 C
   C212       1.0     0.266677      0.233323      0.483326     Biso  1.000000 C
   C213       1.0     0.983294      0.767116      0.767296     Biso  1.000000 C
   C214       1.0     0.983326      0.233323      0.766677     Biso  1.000000 C
   C215       1.0     0.983294      0.232704      0.232884     Biso  1.000000 C
   C216       1.0     0.983366      0.767742      0.232258     Biso  1.000000 C
   C217       1.0     0.232258      0.016634      0.232258     Biso  1.000000 C
   C218       1.0     0.232884      0.016706      0.767296     Biso  1.000000 C
   C219       1.0     0.766677      0.016674      0.766677     Biso  1.000000 C
   C220       1.0     0.767296      0.016706      0.232884     Biso  1.000000 C
   C221       1.0     0.767296      0.267116      0.483294     Biso  1.000000 C
   C222       1.0     0.232258      0.267742      0.483366     Biso  1.000000 C
   C223       1.0     0.232884      0.732704      0.483294     Biso  1.000000 C
   C224       1.0     0.766677      0.733323      0.483326     Biso  1.000000 C
   C225       1.0     0.483294      0.267116      0.767296     Biso  1.000000 C
   C226       1.0     0.483326      0.733323      0.766677     Biso  1.000000 C
   C227       1.0     0.483294      0.732704      0.232884     Biso  1.000000 C
   C228       1.0     0.483366      0.267742      0.232258     Biso  1.000000 C
   C229       1.0     0.232258      0.516634      0.732258     Biso  1.000000 C
   C230       1.0     0.232884      0.516706      0.267296     Biso  1.000000 C
   C231       1.0     0.766677      0.516674      0.266677     Biso  1.000000 C
   C232       1.0     0.767296      0.516706      0.732884     Biso  1.000000 C
   C233       1.0     0.767296      0.767116      0.983294     Biso  1.000000 C
   C234       1.0     0.232258      0.767742      0.983366     Biso  1.000000 C
   C235       1.0     0.232884      0.232704      0.983294     Biso  1.000000 C
   C236       1.0     0.766677      0.233323      0.983326     Biso  1.000000 C
   C237       1.0     0.483294      0.767116      0.267296     Biso  1.000000 C
   C238       1.0     0.483326      0.233323      0.266677     Biso  1.000000 C
   C239       1.0     0.483294      0.232704      0.732884     Biso  1.000000 C
   C240       1.0     0.483366      0.767742      0.732258     Biso  1.000000 C
   C241       1.0     0.712797      0.980721      0.712797     Biso  1.000000 C
   C242       1.0     0.713510      0.980701      0.286720     Biso  1.000000 C
   C243       1.0     0.286018      0.980577      0.286018     Biso  1.000000 C
   C244       1.0     0.286720      0.980701      0.713510     Biso  1.000000 C
   C245       1.0     0.286720      0.286490      0.019299     Biso  1.000000 C
   C246       1.0     0.712797      0.287203      0.019279     Biso  1.000000 C
   C247       1.0     0.713510      0.713280      0.019299     Biso  1.000000 C
   C248       1.0     0.286018      0.713982      0.019423     Biso  1.000000 C
   C249       1.0     0.019299      0.286490      0.286720     Biso  1.000000 C
   C250       1.0     0.019423      0.713982      0.286018     Biso  1.000000 C
   C251       1.0     0.019299      0.713280      0.713510     Biso  1.000000 C
   C252       1.0     0.019279      0.287203      0.712797     Biso  1.000000 C
   C253       1.0     0.712797      0.480721      0.212798     Biso  1.000000 C
   C254       1.0     0.713510      0.480701      0.786720     Biso  1.000000 C
   C255       1.0     0.286018      0.480577      0.786018     Biso  1.000000 C
   C256       1.0     0.286720      0.480701      0.213510     Biso  1.000000 C
   C257       1.0     0.286720      0.786490      0.519299     Biso  1.000000 C
   C258       1.0     0.712797      0.787202      0.519279     Biso  1.000000 C
   C259       1.0     0.713510      0.213280      0.519299     Biso  1.000000 C
   C260       1.0     0.286018      0.213982      0.519423     Biso  1.000000 C
   C261       1.0     0.019299      0.786490      0.786720     Biso  1.000000 C
   C262       1.0     0.019423      0.213982      0.786018     Biso  1.000000 C
   C263       1.0     0.019299      0.213280      0.213510     Biso  1.000000 C
   C264       1.0     0.019279      0.787202      0.212798     Biso  1.000000 C
   C265       1.0     0.212798      0.980721      0.212798     Biso  1.000000 C
   C266       1.0     0.213510      0.980701      0.786720     Biso  1.000000 C
   C267       1.0     0.786018      0.980577      0.786018     Biso  1.000000 C
   C268       1.0     0.786720      0.980701      0.213510     Biso  1.000000 C
   C269       1.0     0.786720      0.286490      0.519299     Biso  1.000000 C
   C270       1.0     0.212798      0.287203      0.519279     Biso  1.000000 C
   C271       1.0     0.213510      0.713280      0.519299     Biso  1.000000 C
   C272       1.0     0.786018      0.713982      0.519423     Biso  1.000000 C
   C273       1.0     0.519299      0.286490      0.786720     Biso  1.000000 C
   C274       1.0     0.519423      0.713982      0.786018     Biso  1.000000 C
   C275       1.0     0.519299      0.713280      0.213510     Biso  1.000000 C
   C276       1.0     0.519279      0.287203      0.212798     Biso  1.000000 C
   C277       1.0     0.212798      0.480721      0.712797     Biso  1.000000 C
   C278       1.0     0.213510      0.480701      0.286720     Biso  1.000000 C
   C279       1.0     0.786018      0.480577      0.286018     Biso  1.000000 C
   C280       1.0     0.786720      0.480701      0.713510     Biso  1.000000 C
   C281       1.0     0.786720      0.786490      0.019299     Biso  1.000000 C
   C282       1.0     0.212798      0.787202      0.019279     Biso  1.000000 C
   C283       1.0     0.213510      0.213280      0.019299     Biso  1.000000 C
   C284       1.0     0.786018      0.213982      0.019423     Biso  1.000000 C
   C285       1.0     0.519299      0.786490      0.286720     Biso  1.000000 C
   C286       1.0     0.519423      0.213982      0.286018     Biso  1.000000 C
   C287       1.0     0.519299      0.213280      0.713510     Biso  1.000000 C
   C288       1.0     0.519279      0.787202      0.712797     Biso  1.000000 C
   H1         1.0     0.699189      0.072019      0.699189     Biso  1.000000 H
   H2         1.0     0.297611      0.913480      0.297611     Biso  1.000000 H
   H3         1.0     0.298175      0.913647      0.701505     Biso  1.000000 H
   H4         1.0     0.699644      0.072198      0.300073     Biso  1.000000 H
   H5         1.0     0.299615      0.072294      0.299615     Biso  1.000000 H
   H6         1.0     0.700941      0.913720      0.700941     Biso  1.000000 H
   H7         1.0     0.701505      0.913647      0.298175     Biso  1.000000 H
   H8         1.0     0.300073      0.072198      0.699644     Biso  1.000000 H
   H9         1.0     0.701505      0.701825      0.086353     Biso  1.000000 H
   H10        1.0     0.300073      0.300356      0.927801     Biso  1.000000 H
   H11        1.0     0.699189      0.300811      0.927981     Biso  1.000000 H
   H12        1.0     0.297611      0.702389      0.086520     Biso  1.000000 H
   H13        1.0     0.298175      0.298495      0.086353     Biso  1.000000 H
   H14        1.0     0.699644      0.699927      0.927801     Biso  1.000000 H
   H15        1.0     0.299615      0.700385      0.927706     Biso  1.000000 H
   H16        1.0     0.700941      0.299059      0.086280     Biso  1.000000 H
   H17        1.0     0.086353      0.701825      0.701505     Biso  1.000000 H
   H18        1.0     0.927801      0.300356      0.300073     Biso  1.000000 H
   H19        1.0     0.927706      0.700385      0.299615     Biso  1.000000 H
   H20        1.0     0.086280      0.299059      0.700941     Biso  1.000000 H
   H21        1.0     0.086353      0.298495      0.298175     Biso  1.000000 H
   H22        1.0     0.927801      0.699927      0.699644     Biso  1.000000 H
   H23        1.0     0.927981      0.300811      0.699189     Biso  1.000000 H
   H24        1.0     0.086520      0.702389      0.297611     Biso  1.000000 H
   H25        1.0     0.699189      0.572019      0.199189     Biso  1.000000 H
   H26        1.0     0.297611      0.413480      0.797611     Biso  1.000000 H
   H27        1.0     0.298175      0.413647      0.201505     Biso  1.000000 H
   H28        1.0     0.699644      0.572199      0.800073     Biso  1.000000 H
   H29        1.0     0.299615      0.572294      0.799614     Biso  1.000000 H
   H30        1.0     0.700941      0.413720      0.200941     Biso  1.000000 H
   H31        1.0     0.701505      0.413647      0.798175     Biso  1.000000 H
   H32        1.0     0.300073      0.572199      0.199644     Biso  1.000000 H
   H33        1.0     0.701505      0.201825      0.586353     Biso  1.000000 H
   H34        1.0     0.300073      0.800355      0.427802     Biso  1.000000 H
   H35        1.0     0.699189      0.800811      0.427981     Biso  1.000000 H
   H36        1.0     0.297611      0.202389      0.586520     Biso  1.000000 H
   H37        1.0     0.298175      0.798495      0.586353     Biso  1.000000 H
   H38        1.0     0.699644      0.199927      0.427802     Biso  1.000000 H
   H39        1.0     0.299615      0.200385      0.427706     Biso  1.000000 H
   H40        1.0     0.700941      0.799059      0.586280     Biso  1.000000 H
   H41        1.0     0.086353      0.201825      0.201505     Biso  1.000000 H
   H42        1.0     0.927801      0.800355      0.800073     Biso  1.000000 H
   H43        1.0     0.927706      0.200385      0.799614     Biso  1.000000 H
   H44        1.0     0.086280      0.799059      0.200941     Biso  1.000000 H
   H45        1.0     0.086353      0.798495      0.798175     Biso  1.000000 H
   H46        1.0     0.927801      0.199927      0.199644     Biso  1.000000 H
   H47        1.0     0.927981      0.800811      0.199189     Biso  1.000000 H
   H48        1.0     0.086520      0.202389      0.797611     Biso  1.000000 H
   H49        1.0     0.199189      0.072019      0.199189     Biso  1.000000 H
   H50        1.0     0.797611      0.913480      0.797611     Biso  1.000000 H
   H51        1.0     0.798175      0.913647      0.201505     Biso  1.000000 H
   H52        1.0     0.199644      0.072198      0.800073     Biso  1.000000 H
   H53        1.0     0.799614      0.072294      0.799614     Biso  1.000000 H
   H54        1.0     0.200941      0.913720      0.200941     Biso  1.000000 H
   H55        1.0     0.201505      0.913647      0.798175     Biso  1.000000 H
   H56        1.0     0.800073      0.072198      0.199644     Biso  1.000000 H
   H57        1.0     0.201505      0.701825      0.586353     Biso  1.000000 H
   H58        1.0     0.800073      0.300356      0.427802     Biso  1.000000 H
   H59        1.0     0.199189      0.300811      0.427981     Biso  1.000000 H
   H60        1.0     0.797611      0.702389      0.586520     Biso  1.000000 H
   H61        1.0     0.798175      0.298495      0.586353     Biso  1.000000 H
   H62        1.0     0.199644      0.699927      0.427802     Biso  1.000000 H
   H63        1.0     0.799614      0.700385      0.427706     Biso  1.000000 H
   H64        1.0     0.200941      0.299059      0.586280     Biso  1.000000 H
   H65        1.0     0.586353      0.701825      0.201505     Biso  1.000000 H
   H66        1.0     0.427802      0.300356      0.800073     Biso  1.000000 H
   H67        1.0     0.427706      0.700385      0.799614     Biso  1.000000 H
   H68        1.0     0.586280      0.299059      0.200941     Biso  1.000000 H
   H69        1.0     0.586353      0.298495      0.798175     Biso  1.000000 H
   H70        1.0     0.427802      0.699927      0.199644     Biso  1.000000 H
   H71        1.0     0.427981      0.300811      0.199189     Biso  1.000000 H
   H72        1.0     0.586520      0.702389      0.797611     Biso  1.000000 H
   H73        1.0     0.199189      0.572019      0.699189     Biso  1.000000 H
   H74        1.0     0.797611      0.413480      0.297611     Biso  1.000000 H
   H75        1.0     0.798175      0.413647      0.701505     Biso  1.000000 H
   H76        1.0     0.199644      0.572199      0.300073     Biso  1.000000 H
   H77        1.0     0.799614      0.572294      0.299615     Biso  1.000000 H
   H78        1.0     0.200941      0.413720      0.700941     Biso  1.000000 H
   H79        1.0     0.201505      0.413647      0.298175     Biso  1.000000 H
   H80        1.0     0.800073      0.572199      0.699644     Biso  1.000000 H
   H81        1.0     0.201505      0.201825      0.086353     Biso  1.000000 H
   H82        1.0     0.800073      0.800355      0.927801     Biso  1.000000 H
   H83        1.0     0.199189      0.800811      0.927981     Biso  1.000000 H
   H84        1.0     0.797611      0.202389      0.086520     Biso  1.000000 H
   H85        1.0     0.798175      0.798495      0.086353     Biso  1.000000 H
   H86        1.0     0.199644      0.199927      0.927801     Biso  1.000000 H
   H87        1.0     0.799614      0.200385      0.927706     Biso  1.000000 H
   H88        1.0     0.200941      0.799059      0.086280     Biso  1.000000 H
   H89        1.0     0.586353      0.201825      0.701505     Biso  1.000000 H
   H90        1.0     0.427802      0.800355      0.300073     Biso  1.000000 H
   H91        1.0     0.427706      0.200385      0.299615     Biso  1.000000 H
   H92        1.0     0.586280      0.799059      0.700941     Biso  1.000000 H
   H93        1.0     0.586353      0.798495      0.298175     Biso  1.000000 H
   H94        1.0     0.427802      0.199927      0.699644     Biso  1.000000 H
   H95        1.0     0.427981      0.800811      0.699189     Biso  1.000000 H
   H96        1.0     0.586520      0.202389      0.297611     Biso  1.000000 H
   H97        1.0     0.688111      0.988419      0.688111     Biso  1.000000 H
   H98        1.0     0.688873      0.988266      0.311498     Biso  1.000000 H
   H99        1.0     0.310747      0.988013      0.310747     Biso  1.000000 H
   H100       1.0     0.311498      0.988266      0.688873     Biso  1.000000 H
   H101       1.0     0.311498      0.311127      0.011734     Biso  1.000000 H
   H102       1.0     0.688111      0.311889      0.011581     Biso  1.000000 H
   H103       1.0     0.688873      0.688502      0.011734     Biso  1.000000 H
   H104       1.0     0.310747      0.689253      0.011987     Biso  1.000000 H
   H105       1.0     0.011734      0.311127      0.311498     Biso  1.000000 H
   H106       1.0     0.011987      0.689253      0.310747     Biso  1.000000 H
   H107       1.0     0.011734      0.688502      0.688873     Biso  1.000000 H
   H108       1.0     0.011581      0.311889      0.688111     Biso  1.000000 H
   H109       1.0     0.688111      0.488419      0.188111     Biso  1.000000 H
   H110       1.0     0.688873      0.488266      0.811498     Biso  1.000000 H
   H111       1.0     0.310747      0.488013      0.810747     Biso  1.000000 H
   H112       1.0     0.311498      0.488266      0.188873     Biso  1.000000 H
   H113       1.0     0.311498      0.811127      0.511734     Biso  1.000000 H
   H114       1.0     0.688111      0.811889      0.511581     Biso  1.000000 H
   H115       1.0     0.688873      0.188502      0.511734     Biso  1.000000 H
   H116       1.0     0.310747      0.189253      0.511987     Biso  1.000000 H
   H117       1.0     0.011734      0.811127      0.811498     Biso  1.000000 H
   H118       1.0     0.011987      0.189253      0.810747     Biso  1.000000 H
   H119       1.0     0.011734      0.188502      0.188873     Biso  1.000000 H
   H120       1.0     0.011581      0.811889      0.188111     Biso  1.000000 H
   H121       1.0     0.188111      0.988419      0.188111     Biso  1.000000 H
   H122       1.0     0.188873      0.988266      0.811498     Biso  1.000000 H
   H123       1.0     0.810747      0.988013      0.810747     Biso  1.000000 H
   H124       1.0     0.811498      0.988266      0.188873     Biso  1.000000 H
   H125       1.0     0.811498      0.311127      0.511734     Biso  1.000000 H
   H126       1.0     0.188111      0.311889      0.511581     Biso  1.000000 H
   H127       1.0     0.188873      0.688502      0.511734     Biso  1.000000 H
   H128       1.0     0.810747      0.689253      0.511987     Biso  1.000000 H
   H129       1.0     0.511734      0.311127      0.811498     Biso  1.000000 H
   H130       1.0     0.511987      0.689253      0.810747     Biso  1.000000 H
   H131       1.0     0.511734      0.688502      0.188873     Biso  1.000000 H
   H132       1.0     0.511581      0.311889      0.188111     Biso  1.000000 H
   H133       1.0     0.188111      0.488419      0.688111     Biso  1.000000 H
   H134       1.0     0.188873      0.488266      0.311498     Biso  1.000000 H
   H135       1.0     0.810747      0.488013      0.310747     Biso  1.000000 H
   H136       1.0     0.811498      0.488266      0.688873     Biso  1.000000 H
   H137       1.0     0.811498      0.811127      0.011734     Biso  1.000000 H
   H138       1.0     0.188111      0.811889      0.011581     Biso  1.000000 H
   H139       1.0     0.188873      0.188502      0.011734     Biso  1.000000 H
   H140       1.0     0.810747      0.189253      0.011987     Biso  1.000000 H
   H141       1.0     0.511734      0.811127      0.311498     Biso  1.000000 H
   H142       1.0     0.511987      0.189253      0.310747     Biso  1.000000 H
   H143       1.0     0.511734      0.188502      0.688873     Biso  1.000000 H
   H144       1.0     0.511581      0.811889      0.688111     Biso  1.000000 H
   O1         1.0     0.248823      0.751177      0.748823     Biso  1.000000 O
   O2         1.0     0.748868      0.251132      0.248868     Biso  1.000000 O
   O3         1.0     0.748823      0.251177      0.748823     Biso  1.000000 O
   O4         1.0     0.248868      0.751132      0.248868     Biso  1.000000 O
   O5         1.0     0.748823      0.751177      0.248823     Biso  1.000000 O
   O6         1.0     0.248868      0.251132      0.748868     Biso  1.000000 O
   O7         1.0     0.248823      0.251177      0.248823     Biso  1.000000 O
   O8         1.0     0.748868      0.751132      0.748868     Biso  1.000000 O
   O9         1.0     0.722875      0.152916      0.722875     Biso  1.000000 O
   O10        1.0     0.275110      0.848771      0.275110     Biso  1.000000 O
   O11        1.0     0.275078      0.848922      0.722973     Biso  1.000000 O
   O12        1.0     0.722797      0.153125      0.275178     Biso  1.000000 O
   O13        1.0     0.275260      0.153258      0.275260     Biso  1.000000 O
   O14        1.0     0.723002      0.849011      0.723002     Biso  1.000000 O
   O15        1.0     0.722973      0.848922      0.275078     Biso  1.000000 O
   O16        1.0     0.275178      0.153125      0.722797     Biso  1.000000 O
   O17        1.0     0.722973      0.724922      0.151078     Biso  1.000000 O
   O18        1.0     0.275178      0.277203      0.846875     Biso  1.000000 O
   O19        1.0     0.722875      0.277125      0.847084     Biso  1.000000 O
   O20        1.0     0.275110      0.724890      0.151229     Biso  1.000000 O
   O21        1.0     0.275078      0.277027      0.151078     Biso  1.000000 O
   O22        1.0     0.722797      0.724822      0.846875     Biso  1.000000 O
   O23        1.0     0.275260      0.724740      0.846742     Biso  1.000000 O
   O24        1.0     0.723002      0.276998      0.150989     Biso  1.000000 O
   O25        1.0     0.151078      0.724922      0.722973     Biso  1.000000 O
   O26        1.0     0.846875      0.277203      0.275178     Biso  1.000000 O
   O27        1.0     0.846742      0.724740      0.275260     Biso  1.000000 O
   O28        1.0     0.150989      0.276998      0.723002     Biso  1.000000 O
   O29        1.0     0.151078      0.277027      0.275078     Biso  1.000000 O
   O30        1.0     0.846875      0.724822      0.722797     Biso  1.000000 O
   O31        1.0     0.847084      0.277125      0.722875     Biso  1.000000 O
   O32        1.0     0.151229      0.724890      0.275110     Biso  1.000000 O
   O33        1.0     0.722875      0.652916      0.222875     Biso  1.000000 O
   O34        1.0     0.275110      0.348771      0.775110     Biso  1.000000 O
   O35        1.0     0.275078      0.348922      0.222973     Biso  1.000000 O
   O36        1.0     0.722797      0.653125      0.775178     Biso  1.000000 O
   O37        1.0     0.275260      0.653258      0.775260     Biso  1.000000 O
   O38        1.0     0.723002      0.349011      0.223002     Biso  1.000000 O
   O39        1.0     0.722973      0.348922      0.775078     Biso  1.000000 O
   O40        1.0     0.275178      0.653125      0.222797     Biso  1.000000 O
   O41        1.0     0.722973      0.224922      0.651078     Biso  1.000000 O
   O42        1.0     0.275178      0.777203      0.346875     Biso  1.000000 O
   O43        1.0     0.722875      0.777125      0.347084     Biso  1.000000 O
   O44        1.0     0.275110      0.224890      0.651229     Biso  1.000000 O
   O45        1.0     0.275078      0.777027      0.651078     Biso  1.000000 O
   O46        1.0     0.722797      0.224822      0.346875     Biso  1.000000 O
   O47        1.0     0.275260      0.224740      0.346742     Biso  1.000000 O
   O48        1.0     0.723002      0.776998      0.650989     Biso  1.000000 O
   O49        1.0     0.151078      0.224922      0.222973     Biso  1.000000 O
   O50        1.0     0.846875      0.777203      0.775178     Biso  1.000000 O
   O51        1.0     0.846742      0.224740      0.775260     Biso  1.000000 O
   O52        1.0     0.150989      0.776998      0.223002     Biso  1.000000 O
   O53        1.0     0.151078      0.777027      0.775078     Biso  1.000000 O
   O54        1.0     0.846875      0.224822      0.222797     Biso  1.000000 O
   O55        1.0     0.847084      0.777125      0.222875     Biso  1.000000 O
   O56        1.0     0.151229      0.224890      0.775110     Biso  1.000000 O
   O57        1.0     0.222875      0.152916      0.222875     Biso  1.000000 O
   O58        1.0     0.775110      0.848771      0.775110     Biso  1.000000 O
   O59        1.0     0.775078      0.848922      0.222973     Biso  1.000000 O
   O60        1.0     0.222797      0.153125      0.775178     Biso  1.000000 O
   O61        1.0     0.775260      0.153258      0.775260     Biso  1.000000 O
   O62        1.0     0.223002      0.849011      0.223002     Biso  1.000000 O
   O63        1.0     0.222973      0.848922      0.775078     Biso  1.000000 O
   O64        1.0     0.775178      0.153125      0.222797     Biso  1.000000 O
   O65        1.0     0.222973      0.724922      0.651078     Biso  1.000000 O
   O66        1.0     0.775178      0.277203      0.346875     Biso  1.000000 O
   O67        1.0     0.222875      0.277125      0.347084     Biso  1.000000 O
   O68        1.0     0.775110      0.724890      0.651229     Biso  1.000000 O
   O69        1.0     0.775078      0.277027      0.651078     Biso  1.000000 O
   O70        1.0     0.222797      0.724822      0.346875     Biso  1.000000 O
   O71        1.0     0.775260      0.724740      0.346742     Biso  1.000000 O
   O72        1.0     0.223002      0.276998      0.650989     Biso  1.000000 O
   O73        1.0     0.651078      0.724922      0.222973     Biso  1.000000 O
   O74        1.0     0.346875      0.277203      0.775178     Biso  1.000000 O
   O75        1.0     0.346742      0.724740      0.775260     Biso  1.000000 O
   O76        1.0     0.650989      0.276998      0.223002     Biso  1.000000 O
   O77        1.0     0.651078      0.277027      0.775078     Biso  1.000000 O
   O78        1.0     0.346875      0.724822      0.222797     Biso  1.000000 O
   O79        1.0     0.347084      0.277125      0.222875     Biso  1.000000 O
   O80        1.0     0.651229      0.724890      0.775110     Biso  1.000000 O
   O81        1.0     0.222875      0.652916      0.722875     Biso  1.000000 O
   O82        1.0     0.775110      0.348771      0.275110     Biso  1.000000 O
   O83        1.0     0.775078      0.348922      0.722973     Biso  1.000000 O
   O84        1.0     0.222797      0.653125      0.275178     Biso  1.000000 O
   O85        1.0     0.775260      0.653258      0.275260     Biso  1.000000 O
   O86        1.0     0.223002      0.349011      0.723002     Biso  1.000000 O
   O87        1.0     0.222973      0.348922      0.275078     Biso  1.000000 O
   O88        1.0     0.775178      0.653125      0.722797     Biso  1.000000 O
   O89        1.0     0.222973      0.224922      0.151078     Biso  1.000000 O
   O90        1.0     0.775178      0.777203      0.846875     Biso  1.000000 O
   O91        1.0     0.222875      0.777125      0.847084     Biso  1.000000 O
   O92        1.0     0.775110      0.224890      0.151229     Biso  1.000000 O
   O93        1.0     0.775078      0.777027      0.151078     Biso  1.000000 O
   O94        1.0     0.222797      0.224822      0.846875     Biso  1.000000 O
   O95        1.0     0.775260      0.224740      0.846742     Biso  1.000000 O
   O96        1.0     0.223002      0.776998      0.150989     Biso  1.000000 O
   O97        1.0     0.651078      0.224922      0.722973     Biso  1.000000 O
   O98        1.0     0.346875      0.777203      0.275178     Biso  1.000000 O
   O99        1.0     0.346742      0.224740      0.275260     Biso  1.000000 O
   O100       1.0     0.650989      0.776998      0.723002     Biso  1.000000 O
   O101       1.0     0.651078      0.777027      0.275078     Biso  1.000000 O
   O102       1.0     0.346875      0.224822      0.722797     Biso  1.000000 O
   O103       1.0     0.347084      0.777125      0.722875     Biso  1.000000 O
   O104       1.0     0.651229      0.224890      0.275110     Biso  1.000000 O
   Zn1        1.0     0.712678      0.214146      0.712678     Biso  1.000000 Zn
   Zn2        1.0     0.285648      0.787160      0.285648     Biso  1.000000 Zn
   Zn3        1.0     0.285854      0.787322      0.712678     Biso  1.000000 Zn
   Zn4        1.0     0.712840      0.214352      0.285648     Biso  1.000000 Zn
   Zn5        1.0     0.285460      0.214540      0.285460     Biso  1.000000 Zn
   Zn6        1.0     0.712538      0.787462      0.712538     Biso  1.000000 Zn
   Zn7        1.0     0.712678      0.787322      0.285854     Biso  1.000000 Zn
   Zn8        1.0     0.285648      0.214352      0.712840     Biso  1.000000 Zn
   Zn9        1.0     0.712678      0.714146      0.212678     Biso  1.000000 Zn
   Zn10       1.0     0.285648      0.287160      0.785648     Biso  1.000000 Zn
   Zn11       1.0     0.712678      0.287322      0.785854     Biso  1.000000 Zn
   Zn12       1.0     0.285648      0.714352      0.212840     Biso  1.000000 Zn
   Zn13       1.0     0.285854      0.287322      0.212678     Biso  1.000000 Zn
   Zn14       1.0     0.712840      0.714352      0.785648     Biso  1.000000 Zn
   Zn15       1.0     0.285460      0.714540      0.785460     Biso  1.000000 Zn
   Zn16       1.0     0.712538      0.287462      0.212538     Biso  1.000000 Zn
   Zn17       1.0     0.212678      0.714146      0.712678     Biso  1.000000 Zn
   Zn18       1.0     0.785648      0.287160      0.285648     Biso  1.000000 Zn
   Zn19       1.0     0.785460      0.714540      0.285460     Biso  1.000000 Zn
   Zn20       1.0     0.212538      0.287462      0.712538     Biso  1.000000 Zn
   Zn21       1.0     0.212678      0.287322      0.285854     Biso  1.000000 Zn
   Zn22       1.0     0.785648      0.714352      0.712840     Biso  1.000000 Zn
   Zn23       1.0     0.785854      0.287322      0.712678     Biso  1.000000 Zn
   Zn24       1.0     0.212840      0.714352      0.285648     Biso  1.000000 Zn
   Zn25       1.0     0.212678      0.214146      0.212678     Biso  1.000000 Zn
   Zn26       1.0     0.785648      0.787160      0.785648     Biso  1.000000 Zn
   Zn27       1.0     0.785460      0.214540      0.785460     Biso  1.000000 Zn
   Zn28       1.0     0.212538      0.787462      0.212538     Biso  1.000000 Zn
   Zn29       1.0     0.212678      0.787322      0.785854     Biso  1.000000 Zn
   Zn30       1.0     0.785648      0.214352      0.212840     Biso  1.000000 Zn
   Zn31       1.0     0.785854      0.787322      0.212678     Biso  1.000000 Zn
   Zn32       1.0     0.212840      0.214352      0.785648     Biso  1.000000 Zn
